# WEL package for MODFLOW-2005 generated by Flopy 3.9.5
         3         0 
         3         0 # stress period 1
         3        22        39         -1500.0
         1        13        15         -4500.0
         1        25        26           375.0
         3         0 # stress period 2
         3        22        39         -1500.0
         1        13        15         -4500.0
         1        25        26           375.0
         3         0 # stress period 3
         3        22        39         -1500.0
         1        13        15         -4500.0
         1        25        26           375.0
         3         0 # stress period 4
         3        22        39         -1500.0
         1        13        15         -4500.0
         1        25        26           375.0
         3         0 # stress period 5
         3        22        39         -1500.0
         1        13        15         -4500.0
         1        25        26           375.0
         3         0 # stress period 6
         3        22        39         -1500.0
         1        13        15         -4500.0
         1        25        26           375.0
         3         0 # stress period 7
         3        22        39         -1500.0
         1        13        15         -4500.0
         1        25        26           375.0
         3         0 # stress period 8
         3        22        39         -1500.0
         1        13        15         -4500.0
         1        25        26           375.0
         3         0 # stress period 9
         3        22        39         -1500.0
         1        13        15         -4500.0
         1        25        26           375.0
         3         0 # stress period 10
         3        22        39         -1500.0
         1        13        15         -4500.0
         1        25        26           375.0
         3         0 # stress period 11
         3        22        39         -1500.0
         1        13        15         -4500.0
         1        25        26           375.0
         3         0 # stress period 12
         3        22        39         -1500.0
         1        13        15         -4500.0
         1        25        26           375.0
         3         0 # stress period 13
         3        22        39         -1500.0
         1        13        15         -4500.0
         1        25        26           375.0
         3         0 # stress period 14
         3        22        39         -1500.0
         1        13        15         -4500.0
         1        25        26           375.0
         3         0 # stress period 15
         3        22        39         -1500.0
         1        13        15         -4500.0
         1        25        26           375.0
         3         0 # stress period 16
         3        22        39         -1500.0
         1        13        15         -4500.0
         1        25        26           375.0
         3         0 # stress period 17
         3        22        39         -1500.0
         1        13        15         -4500.0
         1        25        26           375.0
         3         0 # stress period 18
         3        22        39         -1500.0
         1        13        15         -4500.0
         1        25        26           375.0
         3         0 # stress period 19
         3        22        39         -1500.0
         1        13        15         -4500.0
         1        25        26           375.0
         3         0 # stress period 20
         3        22        39         -1500.0
         1        13        15         -4500.0
         1        25        26           375.0
         3         0 # stress period 21
         3        22        39         -1500.0
         1        13        15         -4500.0
         1        25        26           375.0
