# WEL package for MODFLOW-2005 generated by Flopy 3.9.5
         3         0 
         3         0 # stress period 1
         1        20         6          -346.0
         1        18        13         -5230.0
         1         8        13         -5230.0
