# WEL package for MODFLOW-2005 generated by Flopy 3.9.5
         3         0 
         3         0 # stress period 1
         1        20         6           -3.46
         1        18        13           -52.3
         1         8        13           -52.3
