# WEL package for MODFLOW-2005 generated by Flopy 3.9.5
         3         0 
         3         0 # stress period 1
         1        20         6          -346.0
         1         5        10         -5230.0
         1         5        18         -5230.0
