# WEL package for MODFLOW-2005 generated by Flopy 3.9.5
         2         0 
         2         0 # stress period 1
         1        11        16            -8.0
         1        13        13           -10.0
